12
Energy =
C     1.3907757    0.0000000   -0.0000049
C     0.6953819    1.2044251    0.0000023
C    -0.6953818    1.2044250   -0.0000014
C    -1.3907757   -0.0000000    0.0000042
C    -0.6953819   -1.2044250   -0.0000042
C     0.6953818   -1.2044250    0.0000040
H     2.4736164   -0.0000000   -0.0000034
H     1.2367927    2.1421966    0.0000013
H    -1.2367926    2.1421966   -0.0000051
H    -2.4736164   -0.0000000    0.0000104
H    -1.2367927   -2.1421966   -0.0000139
H     1.2367926   -2.1421966    0.0000107
